Sistemas/uk-teste.pwf
TITU
Generic Network UKGDS1-EHV1                                                     
DCTE
(Mn) ( Val) (Mn) ( Val) (Mn) ( Val) (Mn) ( Val) (Mn) ( Val) (Mn) ( Val) 
BASE   100. DASE   100. TEPA  .1E-4 EXST  .4E-4 TETP     5. TBPA     5.
TLPP     1. TEPR  .1E-4 QLST  .4E-4 TLPR     .1 TLPQ     2. TSBZ    .01
TSBA     5. ASTP    .05 VSTP     5. TLVC     .5 TLTC    .01 TSFR  .1E-7
ZMAX   500. TLPV     .5 VDVM   200. VDVN    40. TUDC   .001 TADC    .01
PGER    30. TPST  .2E-4 VFLD    70. ZMIN   .001 HIST    470 LFIT     10
ACIT     30 LFCV      1 DCIT     10 VSIT     10 LPIT     50 LFLP     10
PDIT     10 LCRT     96 LPRT     60 CSTP     5. ASDC     1.
ICIT   9999 DMAX      5 FDIV     2. ICMN    .05 VART     5. TSTP     33
ICMV     .5 APAS    90. CPAR    70. VAVT     2. VAVF     5. VMVF    15.
VPVT     2. VPVF     5. VPMF    10. VSVF    20. VINF     1. VSUP     1.
TLSI     0. NDIR    20. STTR     5. TRPT   100. STIR     1. BFPO     1.
LFPO     .1                                                            
99999
DBAR
(Num)OETGb(   nome   )Gl( V)( A)( Pg)( Qg)( Qn)( Qm)(Bc  )( Pl)( Ql)( Sh)Are(Vf)M(1)(2)(3)(4)(5)(6)(7)(8)(9)(10
  100 L2 ABARRA----100 A1000  0.17.5530.79 -60.  60.                       11000                                   
  301 L  BBARRA----301 A 968-.07                                           11000                                   
  302 L  BBARRA----302 A1045-.01                                           11000                                   
  303 L  BBARRA----303 A1045-.01                                           11000                                   
  304 L  BBARRA----304 A 9862.82                                           11000                                   
  305 L  BBARRA----305 A1042.165                                           11000                                   
  306 L  BBARRA----306 A1042.165                                           11000                                   
  307 L  BBARRA----307 A1042.248                                           11000                                   
  308 L  BBARRA----308 A1042.248                                           11000                                   
  309 L  BBARRA----309 A10361.05                                           11000                                   
  310 L  BBARRA----310 A1014-.37                                           11000                                   
  311 L  BBARRA----311 A 986-.45                                           11000                                   
  312 L  BBARRA----312 A 985-.59                                           11000                                   
  313 L  BBARRA----313 A 982-.58                                           11000                                   
  314 L  BBARRA----314 A 978.218                                           11000                                   
  315 L  BBARRA----315 A 978.235                                           11000                                   
  316 L  BBARRA----316 A 974.125                                           11000                                   
  317 L  BBARRA----317 A 974.125                                           11000                                   
  318 L  BBARRA----318 A 975.478                                           11000                                   
  319 L  BBARRA----319 A 975.478                                           11000                                   
  320 L  BBARRA----320 A10643.44                                           11000                                   
  321 L  BBARRA----321 A10303.44                                           11000                                   
  322 L  BBARRA----322 A10098.48                                           11000                                   
  323 L  BBARRA----323 A102211.4                                           11000                                   
  324 L  BBARRA----324 A102211.4                                           11000                                   
  325 L  BBARRA----325 A102912.5                                           11000                                   
  326 L  BBARRA----326 A 98611.6                                           11000                                   
  327 L  BBARRA----327 A1030.253                                           11000                                   
  328 L  BBARRA----328 A1029.248                                           11000                                   
  329 L  BBARRA----329 A1029.467                                           11000                                   
  330 L  BBARRA----330 A1029.463                                           11000                                   
  331 L  BBARRA----331 A1041.111                                           11000                                   
  332 L  BBARRA----332 A1041  .3                                           11000                                   
  333 L  BBARRA----333 A1034.527                                           11000                                   
  334 L  BBARRA----334 A1030.768                                           11000                                   
  335 L  BBARRA----335 A1021.815                                           11000                                   
  336 L1 BBARRA----336 A10002.42   0.-7.11 -15.  15.                       11000                                   
  337 L  BBARRA----337 A1025.635                                           11000                                   
  338 L  BBARRA----338 A 976.271                                           11000                                   
  339 L  BBARRA----339 A1030-.37                                           11000                                   
  340 L  BBARRA----340 A1015-.23                                           11000                                   
  341 L  BBARRA----341 A1025-.15                                           11000                                   
  342 L  BBARRA----342 A1025 12.                                           11000                                   
 1101 L  CBARRA---1101 A1030-2.9                            1.9  .39       11000                                   
 1102 L  CBARRA---1102 A1030-3.1                            1.5   .3       11000                                   
 1103 L  CBARRA---1103 A1030-1.6                            .28  .06       11000                                   
 1104 L  CBARRA---1104 A1030-1.8                            .32  .06       11000                                   
 1105 L1 CBARRA---1105 A10301.81   4. -1.7-999999999       3.31  .67       11000                                   
 1106 L1 CBARRA---1106 A1030.824   4.-.024-999999999       1.93  .39       11000                                   
 1107 L  CBARRA---1107 A1030-4.9                           18.4 3.74       11000                                   
 1108 L1 CBARRA---1108 A10303.81   4.-1.03-999999999        1.9  .39       11000                                   
 1109 L  CBARRA---1109 A1030-.51                            .06  .01       11000                                   
 1110 L  CBARRA---1110 A1030-.18                            .06  .01       11000                                   
 1111 L  CBARRA---1111 A10301.79                            .55  .11       11000                                   
 1112 L  CBARRA---1112 A1030 11.                            .04  .01       11000                                   
 1113 L1 CBARRA---1113 A103022.5   4.-1.41-999999999        .77  .15       11000                                   
 1114 L1 CBARRA---1114 A1030 9.8   4.-2.49-999999999        2.7  .55       11000                                   
 1115 L1 CBARRA---1115 A103012.5   4.-4.13-999999999       2.85  .58       11000                                   
 1116 L  CBARRA---1116 A1030-2.1                             .8  .16       11000                                   
 1117 L  CBARRA---1117 A1030-.03                            .21  .04       11000                                   
 1118 L   BARRA---1118 A1030-1.6                            .58  .12       11000                                   
99999
DLIN
(De )d O d(Pa )NcEP ( R% )( X% )(Mvar)(Tap)(Tmn)(Tmx)(Phs)(Bc  )(Cn)(Ce)Ns(Cq)(1)(2)(3)(4)(5)(6)(7)(8)(9)(10
  100       302 1            .25      .9567  .85 1.05       -302 30. 33.33 30.                                
  100       302 2            .25      .9567  .85 1.05       -302 30. 33.33 30.                                
  301      1101 1    38.13297.77      .9091  .85 1.05      -1101 2.52.7533 2.5                                
  302       303 1             .1                                 40. 44.   40.                                
  302       327 1     21.3  28.4                                 20. 22.   20.                                
  302       331 1      9.1  12.1                                 20. 22.   20.                                
  302       340 1     22.7  30.2                                 20. 22.   20.                                
  302       341 1     10.4  19.9                                 25.27.5   25.                                
  303       305 1     12.8   9.4                                 15.16.5   15.                                
  303       339 1       .1  22.5                                 25.27.5   25.                                
  303      1102 1    51.72401.86      .9944  .85 1.05      -1102  2. 2.233  2.                                
  304       321 1     7.28 10.39      .9191  .85 1.05       -321 15.16.533 15.                                
  305       306 1             .1                                 30. 33.   30.                                
  305       307 1      5.6   4.1                                 15.16.5   15.                                
  306      1103 1    157.9 1212.      .9974  .85 1.05      -1103        33                                    
  307       308 1       .2    .1                                 15.16.5   15.                                
  307       309 1     50.7  37.4                                 15.16.5   15.                                
  308      1104 1    157.9 1212.      .9943  .85 1.05      -1104        33                                    
  309      1105 1    15.14161.44      .9717  .85 1.05      -1105  5. 5.533  5.                                
  310       311 1     21.6  28.7                                 20. 22.   20.                                
  310      1106 1     9.17105.53      .9815  .85 1.05      -1106 10. 11.33 10.                                
  311       312 1      .03   2.6    .2                           20. 22.   20.                                
  311       313 1      3.1   3.2    .1                           20. 22.   20.                                
  311       314 1     51.7  37.6                                 15.16.5   15.                                
  311       338 1      7.9  10.6                                 20. 22.   20.                                
  312      1107 1     3.43 89.25      .9378  .85 1.05      -1107 25.27.533 25.                                
  313      1107 1     3.43 89.25      .9378  .85 1.05      -1107 25.27.533 25.                                
  314       315 1       .9    .7                                 15.16.5   15.                                
  314       316 1     16.6  12.1                                 15.16.5   15.                                
  315      1108 1    38.37299.69      .9181  .85 1.05      -1108 2.52.7533 2.5                                
  316       301 1     22.8  22.7                                 15.16.5   15.                                
  316       317 1             .1                                 30. 33.   30.                                
  317      1109 1   271.392078.1      .9287  .85 1.05      -1109        33                                    
  318       304 1     33.6   .27    .6                           15.16.5   15.                                
  318       319 1             .1                                 30. 33.   30.                                
  319      1110 1   271.392078.1      .9473  .85 1.05      -1110        33                                    
  320       321 1             .1                                 30. 33.   30.                                
  320       322 1     53.8  73.3                                 15.16.5   15.                                
  321      1111 1    79.67617.53      .9891  .85 1.05      -1111  1. 1.133  1.                                
  322       323 1    112.6  87.3    .1                           15.16.5   15.                                
  322       326 1     94.4  65.7                                 15.16.5   15.                                
  322      1114 1    38.37299.69      .9414  .85 1.05      -1114 2.52.7533 2.5                                
  322      1114 2    38.37299.69      .9414  .85 1.05      -1114 2.52.7533 2.5                                
  323       324 1      4.5   .02                                 10. 11.   10.                                
  323       342 1     23.8  17.3                                 15.16.5   15.                                
  324      1112 1   271.392078.1       .942  .85 1.05      -1112        33                                    
  325      1113 1    74.31575.96      .9259  .85 1.05      -1113  1. 1.133  1.                                
  326      1115 1     9.44108.69      .9136  .85 1.05      -1115 10. 11.33 10.                                
  327       328 1      5.3   2.3                                 10. 11.   10.                                
  327       329 1      9.4   .11    .1                           15.16.5   15.                                
  328      1116 1    74.31575.96      .9844  .85 1.05      -1116  1. 1.133  1.                                
  329       330 1      3.9   3.9                                 15.16.5   15.                                
  329       337 1      8.3   8.3                                 15.16.5   15.                                
  330      1117 1    57.95449.19      .9961  .85 1.05      -1117 1.51.6533 1.5                                
  331       332 1     11.3    .1    .2                           15.16.5   15.                                
  332       333 1     15.3  20.3                                 20. 22.   20.                                
  334       333 1     14.9  10.8                                 15.16.5   15.                                
  334      1118 1   101.01779.11       .985  .85 1.05      -1118  1. 1.133  1.                                
  335       334 1       .4  29.1                                 15.16.5   15.                                
  335       336 1     40.1  29.2                                 15.16.5   15.                                
  337       335 1      8.8   8.8                                 15.16.5   15.                                
  338       318 1      2.6   1.6    .1                           15.16.5   15.                                
  339       310 1      9.8  22.1                                 25.27.5   25.                                
  340       311 1     21.6  28.7                                 20. 22.   20.                                
  341       311 1     20.8  39.8                                 25.27.5   25.                                
  342       325 1     22.6  16.4                                 15.16.5   15.                                
99999
FIM
